/*--------------------------------*- C++ -*----------------------------------*\
| =========                 |                                                 |
| \\      /  F ield         | OpenFOAM: The Open Source CFD Toolbox           |
|  \\    /   O peration     | Version:  v2412                                 |
|   \\  /    A nd           | Website:  www.openfoam.com                      |
|    \\/     M anipulation  |                                                 |
\*---------------------------------------------------------------------------*/
FoamFile
{
    version     2.0;
    format      ascii;
    arch        "LSB;label=32;scalar=64";
    class       volScalarField;
    location    "0";
    object      nut;
}
// * * * * * * * * * * * * * * * * * * * * * * * * * * * * * * * * * * * * * //

dimensions      [0 2 -1 0 0 0 0];

internalField   uniform 0;

boundaryField
{
    SideWall
    {
        type            calculated;
        value           uniform 0;
    }

    Symmetry
    {
        type symmetryPlane;
    }

    inlet
    {
        type            calculated;
        value           uniform 0;
    }

    outlet
    {
        type            calculated;
        value           uniform 0;
    }

    Ground
    {
        type            nutkWallFunction;
        value           uniform 0;
    }

    Sky
    {
        type            calculated;
        value           uniform 0;
    }

    CARGroup
    {
        type            nutkWallFunction;
        value           uniform 0;
    }

    Front_Tire
    {
        type            nutkWallFunction;
        value           uniform 0;
    }

    Rear_Tire
    {
        type            nutkWallFunction;
        value           uniform 0;
    }

    RrBr
    {
        type            nutkWallFunction;
        value           uniform 0;
    }

    FrBr
    {
        type            nutkWallFunction;
        value           uniform 0;
    }

}


// ************************************************************************* //
