/*--------------------------------*- C++ -*----------------------------------*\
| =========                 |                                                 |
| \\      /  F ield         | OpenFOAM: The Open Source CFD Toolbox           |
|  \\    /   O peration     | Version:  v2412                                 |
|   \\  /    A nd           | Website:  www.openfoam.com                      |
|    \\/     M anipulation  |                                                 |
\*---------------------------------------------------------------------------*/
FoamFile
{
    version     2.0;
    format      ascii;
    class       dictionary;
    object      fvSolution;
}
// * * * * * * * * * * * * * * * * * * * * * * * * * * * * * * * * * * * * * //

solvers
{
    p
    {
        solver          GAMG;
        smoother        GaussSeidel;
        tolerance       1e-6;
        relTol          0.001;
        nPreSweeps      2;
        nPostSweeps     1;
        cacheAgglomeration on;
        agglomerator    faceAreaPair;
        nCellsInCoarsestLevel 100;
        mergeLevels     1;
    }

    Phi
    {
        solver          GAMG;
        smoother        GaussSeidel;
        tolerance       1e-6;
        relTol          0.001;
        nPreSweeps      2;
        nPostSweeps     1;
        cacheAgglomeration on;
        agglomerator    faceAreaPair;
        nCellsInCoarsestLevel 10;
        mergeLevels     1;
    }

    U
    {
        solver          smoothSolver;
        smoother        GaussSeidel;
        tolerance       1e-6;
        relTol          0.01;
        smoother        GaussSeidel;
    }

    k
    {
        solver          smoothSolver;
        smoother        GaussSeidel;
        tolerance       1e-6;
        relTol          0.01;
        smoother        GaussSeidel;
    }

    omega
    {
        solver          smoothSolver;
        smoother        GaussSeidel;
        tolerance       1e-8;
        relTol          0.01;
        smoother        GaussSeidel;
    }

    cellDisplacement
    {
        solver          GAMG;
        smoother        GaussSeidel;
        tolerance       1e-7;
        relTol          0.01;
    }
}

SIMPLE
{
    nNonOrthogonalCorrectors 1;
    consistent yes;
    pRefCell 0;
    pRefValue 0.0;
    residualControl 
    {
        U 1e-06;
        "p.*" 1e-06;
        k 1e-06;
        omega 1e-06;
    }
}

potentialFlow
{
    nNonOrthogonalCorrectors 10;
}

relaxationFactors
{
    fields
    {
        p 0.3;
    }
    equations
    {
        U               0.7;
        k               0.3;
        omega           0.3;
        "\(min\(\(\(.*\*mag\(SndGrad\(p\)\)\)\|\(\(.*\*mag\(snGradCorr\(p\)\)\)\+small\)\),one\)\*snGradCorr\(p\)\)" 0.3;
        snGradCorr(p)   0.3;
    }
}

cache
{
    grad(U);
}

// ************************************************************************* //
